data_image0
_chemical_formula_structural       Al2N2Al2N2
_chemical_formula_sum              "Al4 N4"
_cell_length_a       5.418873614437412
_cell_length_b       3.1285881400000006
_cell_length_c       5.016955
_cell_angle_alpha    90.0
_cell_angle_beta     90.0
_cell_angle_gamma    90.0

_space_group_name_H-M_alt    "P 1"
_space_group_IT_number       1

loop_
  _space_group_symop_operation_xyz
  'x, y, z'

loop_
  _atom_site_type_symbol
  _atom_site_label
  _atom_site_symmetry_multiplicity
  _atom_site_fract_x
  _atom_site_fract_y
  _atom_site_fract_z
  _atom_site_occupancy
  Al  Al1       1.0  0.16666666999999996  0.4999999999999998  0.499287  1.0000
  Al  Al2       1.0  0.8333333300000001  0.4999999999999998  0.999287  1.0000
  N   N1        1.0  0.16666666999999996  0.4999999999999998  0.8807130000000001  1.0000
  N   N2        1.0  0.8333333300000001  0.4999999999999998  0.380713  1.0000
  Al  Al3       1.0  0.66666667  0.9999999999999998  0.499287  1.0000
  Al  Al4       1.0  0.33333333  0.9999999999999998  0.999287  1.0000
  N   N3        1.0  0.66666667  0.9999999999999998  0.8807130000000001  1.0000
  N   N4        1.0  0.33333333  0.9999999999999998  0.380713  1.0000
